<?xml version='1.0' encoding='UTF-8'?>
<routes xmlns:xsi="http://www.w3.org/2001/XMLSchema-instance" xsi:noNamespaceSchemaLocation="http://sumo.dlr.de/xsd/routes_file.xsd">
<vehicle id="1gnss" depart="1.00" color="0,255,0,255"><param key="posNoise" value="0.1" /><route edges="-309286214#1 -309286214#0 -25650354#3 -25650354#2 -25650354#1 -25650354#0 44644758#2 229109409#0 244560422#2 1078568642#1 865065165#0 865065165#1 881627356 1204614544#0 1204614544#1 25670069#0 25670069#1 25670069#2 25670069#3 25670069#4 25650501#3 25650501#4 25650501#5 628572723#0 628572723#1 628572723#2 628572723#4 628572722#2 25671116#1 25671116#3 25671116#5 25671116#6 288489636#2 288489636#3 288489636#4 288489636#5 288489636#6 288489637#0 288489637#1 291450281#0 291450281#1 291450281#2 291450281#3 291450281#5 291450281#6 291450281#7 -25928106#13 -25928106#12 -25928106#11 -25928106#10 -25928106#9" /></vehicle><vehicle id="1gps" depart="1.00" color="255,0,0,255" departLane="0"><param key="posNoise" value="5" /><route edges="-309286214#1 -309286214#0 -25650354#3 -25650354#2 -25650354#1 -25650354#0 44644758#2 229109409#0 244560422#2 1078568642#1 865065165#0 865065165#1 881627356 1204614544#0 1204614544#1 25670069#0 25670069#1 25670069#2 25670069#3 25670069#4 25650501#3 25650501#4 25650501#5 628572723#0 628572723#1 628572723#2 628572723#4 628572722#2 25671116#1 25671116#3 25671116#5 25671116#6 288489636#2 288489636#3 288489636#4 288489636#5 288489636#6 288489637#0 288489637#1 291450281#0 291450281#1 291450281#2 291450281#3 291450281#5 291450281#6 291450281#7 -25928106#13 -25928106#12 -25928106#11 -25928106#10 -25928106#9" /><param key="lateralOffset" value="0.06" /></vehicle><vehicle id="2gnss" depart="2.00" color="0,255,0,255"><param key="posNoise" value="0.1" /><route edges="25928106#9 25928106#10 25928106#11 25928106#12 25928106#13 291450281#9 970970615#0 -25671136#11 -25671136#10 -25671136#9 -25671136#7 -25671136#6 -25671136#5 -25671136#4 -25671136#3 -25671136#2 25671116#3 25671116#5 25671116#6" /></vehicle><vehicle id="2gps" depart="2.00" color="255,0,0,255" departLane="0"><param key="posNoise" value="5" /><route edges="25928106#9 25928106#10 25928106#11 25928106#12 25928106#13 291450281#9 970970615#0 -25671136#11 -25671136#10 -25671136#9 -25671136#7 -25671136#6 -25671136#5 -25671136#4 -25671136#3 -25671136#2 25671116#3 25671116#5 25671116#6" /><param key="lateralOffset" value="0.45" /></vehicle><vehicle id="3gnss" depart="3.00" color="0,255,0,255"><param key="posNoise" value="0.1" /><route edges="45272629#3 45272629#4 -45272629#4 -45272629#3 -45272629#2 -45272629#1 -45272634#7 -45272634#6 -45272634#5 -346618539 346618538#4 346618538#1 443970714#0 443970714#1 443970714#2 443970714#3 443970714#4 443970714#6 443970714#7 25670572#0 25670572#3 24567119#1 865065162 24564600#0 24564600#1 24564600#2 24564600#3 24564600#4 24564600#5 24564600#6 -24590047#3 -24590040#1 -24590040#0 -24663374#7 -24663374#6 -24663374#4 -24663374#3 25483261#0 25483261#1 25483261#2 25483261#3 25483261#4 -25483261#4" /></vehicle><vehicle id="3gps" depart="3.00" color="255,0,0,255" departLane="0"><param key="posNoise" value="5" /><route edges="45272629#3 45272629#4 -45272629#4 -45272629#3 -45272629#2 -45272629#1 -45272634#7 -45272634#6 -45272634#5 -346618539 346618538#4 346618538#1 443970714#0 443970714#1 443970714#2 443970714#3 443970714#4 443970714#6 443970714#7 25670572#0 25670572#3 24567119#1 865065162 24564600#0 24564600#1 24564600#2 24564600#3 24564600#4 24564600#5 24564600#6 -24590047#3 -24590040#1 -24590040#0 -24663374#7 -24663374#6 -24663374#4 -24663374#3 25483261#0 25483261#1 25483261#2 25483261#3 25483261#4 -25483261#4" /><param key="lateralOffset" value="0.15" /></vehicle><vehicle id="4gnss" depart="4.00" color="0,255,0,255"><param key="posNoise" value="0.1" /><route edges="193285740#1 25670996#0 25670996#1 -291450287#0 -25730209 -536225687#1 -25671001#1 -25671001#0 -25670982#2 -25670982#1 -25670982#0 970970614#0 970970614#1 25722234#0 31737033#0 31737033#1 31737033#2 31737033#3 31737033#4 31737033#5 -45272634#13 -45272634#12 -45272634#11 -45272634#10 -45272634#9 -45272634#8 -45272634#7 -45272634#6 -45272634#5 -346618539 346618538#4 346618538#1 443970714#0 443970714#1 443970714#2 443970714#3 443970714#4 443970714#6 443970714#7 25670572#0 25670572#3 24567119#1 -25607920#3 -25607920#2 -25607920#1 -25607920#0 -24676271#3 -24676271#2 -24676271#0 -24590040#4" /></vehicle><vehicle id="4gps" depart="4.00" color="255,0,0,255" departLane="0"><param key="posNoise" value="5" /><route edges="193285740#1 25670996#0 25670996#1 -291450287#0 -25730209 -536225687#1 -25671001#1 -25671001#0 -25670982#2 -25670982#1 -25670982#0 970970614#0 970970614#1 25722234#0 31737033#0 31737033#1 31737033#2 31737033#3 31737033#4 31737033#5 -45272634#13 -45272634#12 -45272634#11 -45272634#10 -45272634#9 -45272634#8 -45272634#7 -45272634#6 -45272634#5 -346618539 346618538#4 346618538#1 443970714#0 443970714#1 443970714#2 443970714#3 443970714#4 443970714#6 443970714#7 25670572#0 25670572#3 24567119#1 -25607920#3 -25607920#2 -25607920#1 -25607920#0 -24676271#3 -24676271#2 -24676271#0 -24590040#4" /><param key="lateralOffset" value="0.38" /></vehicle><vehicle id="5gnss" depart="5.00" color="0,255,0,255"><param key="posNoise" value="0.1" /><route edges="-25928101#1 -25928101#0 -1078568644#0 -1078568645#1 -1078568645#0 -25670887#7 -25670887#6 -25670887#5 -25670887#4 -25670887#3 -25670887#2 -25670887#1 -25670887#0 -590567333#2 -590567333#1 -590567333#0 -25670845#1 -25670845#0 25722169#1 970970615#0 -25671136#11 -25671136#10 -25671136#9 -25671136#7 -25671136#6 -25671136#5 -25671136#4 -25671136#3 -25671136#2 -25671116#2 -25671116#0 -628572722#0 -628572723#2 -628572723#1 -628572723#0 25650501#6 25650501#1 25670050#0 25670050#1 25670050#2 25670050#3 25670050#4 25670050#5 1204614543#0 1204614543#1 1204614545 881627355 865065165#0 865065165#1 24567234#0 24567234#1 24567234#2 24567234#3 24567234#4 25029625#1 25029625#2 25029625#3" /></vehicle><vehicle id="5gps" depart="5.00" color="255,0,0,255" departLane="0"><param key="posNoise" value="5" /><route edges="-25928101#1 -25928101#0 -1078568644#0 -1078568645#1 -1078568645#0 -25670887#7 -25670887#6 -25670887#5 -25670887#4 -25670887#3 -25670887#2 -25670887#1 -25670887#0 -590567333#2 -590567333#1 -590567333#0 -25670845#1 -25670845#0 25722169#1 970970615#0 -25671136#11 -25671136#10 -25671136#9 -25671136#7 -25671136#6 -25671136#5 -25671136#4 -25671136#3 -25671136#2 -25671116#2 -25671116#0 -628572722#0 -628572723#2 -628572723#1 -628572723#0 25650501#6 25650501#1 25670050#0 25670050#1 25670050#2 25670050#3 25670050#4 25670050#5 1204614543#0 1204614543#1 1204614545 881627355 865065165#0 865065165#1 24567234#0 24567234#1 24567234#2 24567234#3 24567234#4 25029625#1 25029625#2 25029625#3" /><param key="lateralOffset" value="-0.17" /></vehicle><vehicle id="6gnss" depart="6.00" color="0,255,0,255"><param key="posNoise" value="0.1" /><route edges="-24564600#3 -24564600#2 -24564600#1 -24564600#0 980868421 881627361 24567119#0 24567119#1 -25607920#3 -25607920#2 -25607920#1 -25607920#0 25607927#0 25607927#1 25607927#2 25607951#1 25607951#2 25607951#3 24567148#0 24567148#1 1078568615#0 1078568615#1 25608116#1 751833239 865065164#5 865065164#6 751833240 25608176#0 25608176#1 25608176#2 25608176#3 25608176#4 24567199 1204614545 25608295#0 25608295#1 25608295#3 25608295#4 881627333 244560423#0 244560423#2 24567248#1 25608435#0 25608435#2 351703076#0 861143931#1 861143931#1-AddedOffRampEdge 769102169#1 769102169#3 861143929 305951638#0 305951638#1 305951638#2 25608514#0 25608514#1 25608514#2 25608514#3 25608514#4 881627353 865065167#0 25651145#0 25651145#1 -813984062 25917481#1 25917481#2 25917481#3 -25917481#3" /></vehicle><vehicle id="6gps" depart="6.00" color="255,0,0,255" departLane="0"><param key="posNoise" value="5" /><route edges="-24564600#3 -24564600#2 -24564600#1 -24564600#0 980868421 881627361 24567119#0 24567119#1 -25607920#3 -25607920#2 -25607920#1 -25607920#0 25607927#0 25607927#1 25607927#2 25607951#1 25607951#2 25607951#3 24567148#0 24567148#1 1078568615#0 1078568615#1 25608116#1 751833239 865065164#5 865065164#6 751833240 25608176#0 25608176#1 25608176#2 25608176#3 25608176#4 24567199 1204614545 25608295#0 25608295#1 25608295#3 25608295#4 881627333 244560423#0 244560423#2 24567248#1 25608435#0 25608435#2 351703076#0 861143931#1 861143931#1-AddedOffRampEdge 769102169#1 769102169#3 861143929 305951638#0 305951638#1 305951638#2 25608514#0 25608514#1 25608514#2 25608514#3 25608514#4 881627353 865065167#0 25651145#0 25651145#1 -813984062 25917481#1 25917481#2 25917481#3 -25917481#3" /><param key="lateralOffset" value="0.12" /></vehicle><vehicle id="7gnss" depart="7.00" color="0,255,0,255"><param key="posNoise" value="0.1" /><route edges="25670585#7 25670585#8 346618538#1 443970714#0 443970714#1 443970714#2 443970714#3 443970714#4 443970714#6 443970714#7 25670572#0 25670572#3 24567119#1 -25607920#3 -25607920#2 -25607920#1 -25607920#0 25607927#0 25607927#1 25607927#2 -24658460#6 -24658460#5 -24658460#4 -24658460#2 -24658460#1 -24658460#0 -24590059#0 24716974#1 24716974#2 24716974#3 -289564264#6 -289564264#5 -289564264#4 25487388#0 25487388#1 25487391#0 25592423" /></vehicle><vehicle id="7gps" depart="7.00" color="255,0,0,255" departLane="0"><param key="posNoise" value="5" /><route edges="25670585#7 25670585#8 346618538#1 443970714#0 443970714#1 443970714#2 443970714#3 443970714#4 443970714#6 443970714#7 25670572#0 25670572#3 24567119#1 -25607920#3 -25607920#2 -25607920#1 -25607920#0 25607927#0 25607927#1 25607927#2 -24658460#6 -24658460#5 -24658460#4 -24658460#2 -24658460#1 -24658460#0 -24590059#0 24716974#1 24716974#2 24716974#3 -289564264#6 -289564264#5 -289564264#4 25487388#0 25487388#1 25487391#0 25592423" /><param key="lateralOffset" value="0.14" /></vehicle><vehicle id="8gnss" depart="8.00" color="0,255,0,255"><param key="posNoise" value="0.1" /><route edges="-25928101#11 25928121#0 25928121#1 291450281#9 970970615#0 -25671136#11 -25671136#10 -25671136#9 -25671136#7 -25671136#6 -25671136#5 -25671136#4 -25671136#3 -25671136#2 -25671116#2 -25671116#0 -628572722#0 -628572723#2 -628572723#1 -628572723#0 25650501#6 25650501#1 25670050#0 25670050#1 25670050#2 25670050#3 25670050#4 25670050#5 1204614543#0 1204614543#1 1204614545 25608295#0 25608295#1 25608295#3 25608295#4 881627333 244560423#0 244560423#2 24567248#1 25608435#0 25608435#2 351703076#0 861143931#1 861143931#1-AddedOffRampEdge 769102169#1 769102169#3 861143929 305951638#0 305951638#1 305951638#2 25608514#0 25608514#1 25608514#2 25608514#3 25608514#4 25608820#0 25608820#1 25608820#2" /></vehicle><vehicle id="8gps" depart="8.00" color="255,0,0,255" departLane="0"><param key="posNoise" value="5" /><route edges="-25928101#11 25928121#0 25928121#1 291450281#9 970970615#0 -25671136#11 -25671136#10 -25671136#9 -25671136#7 -25671136#6 -25671136#5 -25671136#4 -25671136#3 -25671136#2 -25671116#2 -25671116#0 -628572722#0 -628572723#2 -628572723#1 -628572723#0 25650501#6 25650501#1 25670050#0 25670050#1 25670050#2 25670050#3 25670050#4 25670050#5 1204614543#0 1204614543#1 1204614545 25608295#0 25608295#1 25608295#3 25608295#4 881627333 244560423#0 244560423#2 24567248#1 25608435#0 25608435#2 351703076#0 861143931#1 861143931#1-AddedOffRampEdge 769102169#1 769102169#3 861143929 305951638#0 305951638#1 305951638#2 25608514#0 25608514#1 25608514#2 25608514#3 25608514#4 25608820#0 25608820#1 25608820#2" /><param key="lateralOffset" value="-0.39" /></vehicle><vehicle id="9gnss" depart="9.00" color="0,255,0,255"><param key="posNoise" value="0.1" /><route edges="291450281#6 291450281#7 291450281#9 970970615#0 -25671136#11 -25671136#10 -25671136#9 -25671136#7 -25671136#6 -25671136#5 -25671136#4 -25671136#3 -25671136#2 -25671116#2 -25671116#0 -628572722#0 -628572723#2 -628572723#1 -628572723#0 25650501#6 25650501#1 25670050#0 25670050#1 25670050#2 25670050#3 25670050#4 25670050#5 1204614543#0 1204614543#1 1204614545 881627355 865065165#0 865065165#1 24567234#0 24567234#1 24567234#2 24567234#3 24567234#4 25029625#1 25029625#2 25029625#3 25029625#4 25029625#5 25029625#6 25029625#7 25029625#8 25029625#9 25029625#10 25029625#11 25029625#12 -24659055#1 -24659055#0 -1180616560#11" /></vehicle><vehicle id="9gps" depart="9.00" color="255,0,0,255" departLane="0"><param key="posNoise" value="5" /><route edges="291450281#6 291450281#7 291450281#9 970970615#0 -25671136#11 -25671136#10 -25671136#9 -25671136#7 -25671136#6 -25671136#5 -25671136#4 -25671136#3 -25671136#2 -25671116#2 -25671116#0 -628572722#0 -628572723#2 -628572723#1 -628572723#0 25650501#6 25650501#1 25670050#0 25670050#1 25670050#2 25670050#3 25670050#4 25670050#5 1204614543#0 1204614543#1 1204614545 881627355 865065165#0 865065165#1 24567234#0 24567234#1 24567234#2 24567234#3 24567234#4 25029625#1 25029625#2 25029625#3 25029625#4 25029625#5 25029625#6 25029625#7 25029625#8 25029625#9 25029625#10 25029625#11 25029625#12 -24659055#1 -24659055#0 -1180616560#11" /><param key="lateralOffset" value="0.04" /></vehicle><vehicle id="10gnss" depart="10.00" color="0,255,0,255"><param key="posNoise" value="0.1" /><route edges="291450281#0 291450281#1 291450281#2 291450281#3 291450281#5 291450281#6 291450281#7 291450281#9 970970615#0 -25671136#11 -25671136#10 -25671136#9 -25671136#7 -25671136#6 -25671136#5 -25671136#4 -25671136#3 -25671136#2 -25671116#2 -25671116#0 -628572722#0 -628572723#2 -628572723#1 -628572723#0 25650501#6 25650501#1 25670050#0 25670050#1 25670050#2 25670050#3 25670050#4 25670050#5 1204614543#0 1204614543#1 1204614545 25608295#0 25608295#1 25608295#3 25608295#4 881627333 244560423#0 244560423#2 24567248#1 25608435#0 25608435#2 351703076#0 861143931#1 861143931#1-AddedOffRampEdge 769102169#1 769102169#3 861143929 305951638#0 305951638#1 305951638#2 25608514#0 25608514#1 25608514#2 25608514#3 25608514#4 25608820#0 25608820#1 25608820#2 25608820#3 25608820#4 25608790#0 25608790#1 25608790#2 25608790#3 881627351 865065168#0 865065168#1 -25917422#1 25917424#5" /></vehicle><vehicle id="10gps" depart="10.00" color="255,0,0,255" departLane="0"><param key="posNoise" value="5" /><route edges="291450281#0 291450281#1 291450281#2 291450281#3 291450281#5 291450281#6 291450281#7 291450281#9 970970615#0 -25671136#11 -25671136#10 -25671136#9 -25671136#7 -25671136#6 -25671136#5 -25671136#4 -25671136#3 -25671136#2 -25671116#2 -25671116#0 -628572722#0 -628572723#2 -628572723#1 -628572723#0 25650501#6 25650501#1 25670050#0 25670050#1 25670050#2 25670050#3 25670050#4 25670050#5 1204614543#0 1204614543#1 1204614545 25608295#0 25608295#1 25608295#3 25608295#4 881627333 244560423#0 244560423#2 24567248#1 25608435#0 25608435#2 351703076#0 861143931#1 861143931#1-AddedOffRampEdge 769102169#1 769102169#3 861143929 305951638#0 305951638#1 305951638#2 25608514#0 25608514#1 25608514#2 25608514#3 25608514#4 25608820#0 25608820#1 25608820#2 25608820#3 25608820#4 25608790#0 25608790#1 25608790#2 25608790#3 881627351 865065168#0 865065168#1 -25917422#1 25917424#5" /><param key="lateralOffset" value="0.05" /></vehicle><vehicle id="11gnss" depart="11.00" color="0,255,0,255"><param key="posNoise" value="0.1" /><route edges="-45272663#2 -45272663#1 -45272663#0 45272663#0 45272663#1 45272663#2 -25607920#1 -25607920#0 25607927#0 25607927#1 25607927#2 25607951#1 25607951#2 25607951#3 24567148#0 24567148#1 1078568615#0 1078568615#1 25608116#1 751833239 865065164#5 865065164#6 751833240 25608176#0 25608176#1 25650542#1 25650542#2 25650542#3 25650542#5 25650542#6 25650542#7 25650542#8 25650542#9 25650542#10 25650542#12 25650542#13 25650542#14 25650542#15 25650542#16 25650501#4 25650501#5 628572723#0 628572723#1 628572723#2 628572723#4 628572722#2 25671116#1 25671136#1 25671136#3 25671136#4 25671136#5 25671136#6 25671136#7 25671136#9 25671136#10 25671136#11 970970615#1 25722169#0 25670845#0 25670845#1 -25670845#1" /></vehicle><vehicle id="11gps" depart="11.00" color="255,0,0,255" departLane="0"><param key="posNoise" value="5" /><route edges="-45272663#2 -45272663#1 -45272663#0 45272663#0 45272663#1 45272663#2 -25607920#1 -25607920#0 25607927#0 25607927#1 25607927#2 25607951#1 25607951#2 25607951#3 24567148#0 24567148#1 1078568615#0 1078568615#1 25608116#1 751833239 865065164#5 865065164#6 751833240 25608176#0 25608176#1 25650542#1 25650542#2 25650542#3 25650542#5 25650542#6 25650542#7 25650542#8 25650542#9 25650542#10 25650542#12 25650542#13 25650542#14 25650542#15 25650542#16 25650501#4 25650501#5 628572723#0 628572723#1 628572723#2 628572723#4 628572722#2 25671116#1 25671136#1 25671136#3 25671136#4 25671136#5 25671136#6 25671136#7 25671136#9 25671136#10 25671136#11 970970615#1 25722169#0 25670845#0 25670845#1 -25670845#1" /><param key="lateralOffset" value="0.10" /></vehicle><vehicle id="12gnss" depart="12.00" color="0,255,0,255"><param key="posNoise" value="0.1" /><route edges="751833238 24567187#0 24567187#1 24567187#2 1078568616#1 1078568616#2 865065163#0 865065163#1 24567151#0 24567151#1 24567151#2 24567151#3 1078568638 25608003#1 25607920#0 25607920#1 25607920#2 25607920#3 865065162 980868421 751826861#0 751826861#1 751826859#1 865065161 881627363 979431121#0 979431121#1 979431121#2 25670716#0 25670716#1 25670716#4 25670716#5 25670716#6 25671084#1 25671084#2 56025872#0 56025872#1 -56025872#1" /></vehicle><vehicle id="12gps" depart="12.00" color="255,0,0,255" departLane="0"><param key="posNoise" value="5" /><route edges="751833238 24567187#0 24567187#1 24567187#2 1078568616#1 1078568616#2 865065163#0 865065163#1 24567151#0 24567151#1 24567151#2 24567151#3 1078568638 25608003#1 25607920#0 25607920#1 25607920#2 25607920#3 865065162 980868421 751826861#0 751826861#1 751826859#1 865065161 881627363 979431121#0 979431121#1 979431121#2 25670716#0 25670716#1 25670716#4 25670716#5 25670716#6 25671084#1 25671084#2 56025872#0 56025872#1 -56025872#1" /><param key="lateralOffset" value="-0.15" /></vehicle><vehicle id="13gnss" depart="13.00" color="0,255,0,255"><param key="posNoise" value="0.1" /><route edges="-25487388#1 -25487388#0 289564264#4 289564264#5 289564264#6 289564264#7 289564267 1180616558 25592097#0 24567187#1 24567187#2 1078568616#1 1078568616#2 865065163#0 865065163#1 881627360 24567148#0 -25670344#7 -25670344#6 -25670344#5 -25670344#4 -25670344#2 -25670344#1 -25607937#11 -25607937#10 -25607937#9 -25607937#8 -25607937#6 -25607937#5 -25607937#4 -25607937#3 -25607937#1" /></vehicle><vehicle id="13gps" depart="13.00" color="255,0,0,255" departLane="0"><param key="posNoise" value="5" /><route edges="-25487388#1 -25487388#0 289564264#4 289564264#5 289564264#6 289564264#7 289564267 1180616558 25592097#0 24567187#1 24567187#2 1078568616#1 1078568616#2 865065163#0 865065163#1 881627360 24567148#0 -25670344#7 -25670344#6 -25670344#5 -25670344#4 -25670344#2 -25670344#1 -25607937#11 -25607937#10 -25607937#9 -25607937#8 -25607937#6 -25607937#5 -25607937#4 -25607937#3 -25607937#1" /><param key="lateralOffset" value="0.04" /></vehicle><vehicle id="14gnss" depart="14.00" color="0,255,0,255"><param key="posNoise" value="0.1" /><route edges="34600338#1 -34600338#1 -34600338#0 1205701328#0 1205701328#1 1205701328#2 1205701328#3 25670737#0 25670737#1 25670737#2 25670737#3 25722169#0 25722169#1 970970615#0 -25671136#11 -25671136#10 -25671136#9 -25671136#7 -25671136#6 -25671136#5 -25671136#4 -25671136#3 -25671136#2 -25671116#2 -25671116#0 -628572722#0 -628572723#2 -628572723#1 -628572723#0 25650501#6 25650501#1 25650501#2 25650501#3 -25650542#16 -25650542#15 -25650542#14 -25650542#13 -25650542#12 -25650542#10 -25650542#9 -25650542#8 -25650542#7 -25650542#6 -25650542#5 -25650542#3 -25650542#2 -25650542#1 25650542#1" /></vehicle><vehicle id="14gps" depart="14.00" color="255,0,0,255" departLane="0"><param key="posNoise" value="5" /><route edges="34600338#1 -34600338#1 -34600338#0 1205701328#0 1205701328#1 1205701328#2 1205701328#3 25670737#0 25670737#1 25670737#2 25670737#3 25722169#0 25722169#1 970970615#0 -25671136#11 -25671136#10 -25671136#9 -25671136#7 -25671136#6 -25671136#5 -25671136#4 -25671136#3 -25671136#2 -25671116#2 -25671116#0 -628572722#0 -628572723#2 -628572723#1 -628572723#0 25650501#6 25650501#1 25650501#2 25650501#3 -25650542#16 -25650542#15 -25650542#14 -25650542#13 -25650542#12 -25650542#10 -25650542#9 -25650542#8 -25650542#7 -25650542#6 -25650542#5 -25650542#3 -25650542#2 -25650542#1 25650542#1" /><param key="lateralOffset" value="0.29" /></vehicle><vehicle id="15gnss" depart="15.00" color="0,255,0,255"><param key="posNoise" value="0.1" /><route edges="291450281#2 291450281#3 291450281#5 291450281#6 291450281#7 -25928106#13 -25928106#12 -25928106#11 -25928106#10 -25928106#9 -25928106#8 -25928106#7 -25928106#6 -25928106#5 -25928106#4 -25928106#3 -25928106#2 -25928106#1 -25928106#0 25928106#0 25928106#1 25928106#2 25928106#3 25928106#4" /></vehicle><vehicle id="15gps" depart="15.00" color="255,0,0,255" departLane="0"><param key="posNoise" value="5" /><route edges="291450281#2 291450281#3 291450281#5 291450281#6 291450281#7 -25928106#13 -25928106#12 -25928106#11 -25928106#10 -25928106#9 -25928106#8 -25928106#7 -25928106#6 -25928106#5 -25928106#4 -25928106#3 -25928106#2 -25928106#1 -25928106#0 25928106#0 25928106#1 25928106#2 25928106#3 25928106#4" /><param key="lateralOffset" value="0.23" /></vehicle><vehicle id="17gnss" depart="17.00" color="0,255,0,255"><param key="posNoise" value="0.1" /><route edges="-944746123#1 25670050#4 25670050#5 1204614543#0 1204614543#1 1204614545 881627355 865065165#0 865065165#1 24567234#0 24567234#1 24567234#2 24567234#3 24567234#4 24567234#5 24567234#6 751833241 865065164#0 865065164#1 865065164#2 865065164#3 751833238 24567187#0 24567187#1 24567187#2 1078568616#1 1078568616#2 865065163#0 865065163#1 24567151#0 24567151#1 24567151#2 24567151#3 1078568638 25608003#1 25607920#0 25607920#1 25607920#2" /></vehicle><vehicle id="17gps" depart="17.00" color="255,0,0,255" departLane="0"><param key="posNoise" value="5" /><route edges="-944746123#1 25670050#4 25670050#5 1204614543#0 1204614543#1 1204614545 881627355 865065165#0 865065165#1 24567234#0 24567234#1 24567234#2 24567234#3 24567234#4 24567234#5 24567234#6 751833241 865065164#0 865065164#1 865065164#2 865065164#3 751833238 24567187#0 24567187#1 24567187#2 1078568616#1 1078568616#2 865065163#0 865065163#1 24567151#0 24567151#1 24567151#2 24567151#3 1078568638 25608003#1 25607920#0 25607920#1 25607920#2" /><param key="lateralOffset" value="-0.29" /></vehicle><vehicle id="19gnss" depart="19.00" color="0,255,0,255"><param key="posNoise" value="0.1" /><route edges="346618536#0 346618536#1 31737342#0 31737342#1 31737342#2 31737342#3 31737342#4 31737342#5 31737342#6 31737342#7 31737342#8 25670572#0 25670572#3 24567119#1 -25607920#3 -25607920#2 -25607920#1 -25607920#0 25607927#0 25607927#1 25607927#2 25607951#1 25607951#2 25607951#3 24567148#0 24567148#1 1078568615#0 1078568615#1 25608116#1 751833239 865065164#5 865065164#6 751833240 25608176#0 25608176#1 25608176#2 25608176#3 25608176#4 24567199 1204614545 25608295#0 25608295#1 25608295#3 25608295#4 881627333 244560423#0 244560423#2 24567248#1 25608435#0 25608435#2 351703076#0 -25608687#6 -25608687#4 -25608687#3 -25608687#2 25608687#2 25608687#3" /></vehicle><vehicle id="19gps" depart="19.00" color="255,0,0,255" departLane="0"><param key="posNoise" value="5" /><route edges="346618536#0 346618536#1 31737342#0 31737342#1 31737342#2 31737342#3 31737342#4 31737342#5 31737342#6 31737342#7 31737342#8 25670572#0 25670572#3 24567119#1 -25607920#3 -25607920#2 -25607920#1 -25607920#0 25607927#0 25607927#1 25607927#2 25607951#1 25607951#2 25607951#3 24567148#0 24567148#1 1078568615#0 1078568615#1 25608116#1 751833239 865065164#5 865065164#6 751833240 25608176#0 25608176#1 25608176#2 25608176#3 25608176#4 24567199 1204614545 25608295#0 25608295#1 25608295#3 25608295#4 881627333 244560423#0 244560423#2 24567248#1 25608435#0 25608435#2 351703076#0 -25608687#6 -25608687#4 -25608687#3 -25608687#2 25608687#2 25608687#3" /><param key="lateralOffset" value="-0.37" /></vehicle><vehicle id="20gnss" depart="20.00" color="0,255,0,255"><param key="posNoise" value="0.1" /><route edges="25917481#1 25917481#2 25917481#3 -25917481#3 -25917481#2 -25917481#1 817637885 244558361#0 244558361#1 865065167#2 865065167#3 865065167#4 865065167#5 861143928#0 861143928#1 861143928#2 25608538#0 861143927 -751833234#1 751833234#0 861143926#0 861143926#1 305776093#0 305776093#0-AddedOffRampEdge 305776093#1 305776093#3 305776093#4 305776093#6 1013696175 1013696176 865065166 24567262#0 24567262#2 244560422#0 244560422#1 244560422#2 1078568642#1 865065165#0 865065165#1 24567234#0 24567234#1 24567234#2 24567234#3 24567234#4 25029625#1 25029625#2 25029625#3 25029625#4 25029625#5 25029625#6 25029625#7 25029625#8 25029625#9 25029625#10 25029625#11 25029625#12 -24659055#1 -24659055#0" /></vehicle><vehicle id="20gps" depart="20.00" color="255,0,0,255" departLane="0"><param key="posNoise" value="5" /><route edges="25917481#1 25917481#2 25917481#3 -25917481#3 -25917481#2 -25917481#1 817637885 244558361#0 244558361#1 865065167#2 865065167#3 865065167#4 865065167#5 861143928#0 861143928#1 861143928#2 25608538#0 861143927 -751833234#1 751833234#0 861143926#0 861143926#1 305776093#0 305776093#0-AddedOffRampEdge 305776093#1 305776093#3 305776093#4 305776093#6 1013696175 1013696176 865065166 24567262#0 24567262#2 244560422#0 244560422#1 244560422#2 1078568642#1 865065165#0 865065165#1 24567234#0 24567234#1 24567234#2 24567234#3 24567234#4 25029625#1 25029625#2 25029625#3 25029625#4 25029625#5 25029625#6 25029625#7 25029625#8 25029625#9 25029625#10 25029625#11 25029625#12 -24659055#1 -24659055#0" /><param key="lateralOffset" value="0.28" /></vehicle><vehicle id="21gnss" depart="21.00" color="0,255,0,255"><param key="posNoise" value="0.1" /><route edges="-25928106#13 -25928106#12 -25928106#11 -25928106#10 -25928106#9 -25928106#8 -25928106#7 -25928106#6 -25928106#5 -25928106#4 -25928106#3 -25928106#2 -25928106#1 -25928106#0 25670887#1 25670887#2 25670887#3 25670887#4 25670887#5 25670887#6 25670887#7 25670887#8 1078568645#1 1078568645#2 1078568644#1 952510713 311644665#0 311644665#1 952510716 288494975#0 288494975#1 311644658#1 311644658#2 1073151621#0 291450281#0 -34629762#4 -34629762#3" /></vehicle><vehicle id="21gps" depart="21.00" color="255,0,0,255" departLane="0"><param key="posNoise" value="5" /><route edges="-25928106#13 -25928106#12 -25928106#11 -25928106#10 -25928106#9 -25928106#8 -25928106#7 -25928106#6 -25928106#5 -25928106#4 -25928106#3 -25928106#2 -25928106#1 -25928106#0 25670887#1 25670887#2 25670887#3 25670887#4 25670887#5 25670887#6 25670887#7 25670887#8 1078568645#1 1078568645#2 1078568644#1 952510713 311644665#0 311644665#1 952510716 288494975#0 288494975#1 311644658#1 311644658#2 1073151621#0 291450281#0 -34629762#4 -34629762#3" /><param key="lateralOffset" value="-0.36" /></vehicle><vehicle id="22gnss" depart="22.00" color="0,255,0,255"><param key="posNoise" value="0.1" /><route edges="-25483190#2 -25483190#0 25483190#0 25483190#2 25483172#3 25483172#4 25483172#5 25483172#6 751833235#1 24567234#2 24567234#3 24567234#4 24567234#5 24567234#6 751833241 865065164#0 865065164#1 865065164#2 865065164#3 865065164#4 865065164#5 865065164#6 751833240 25608176#0 25608176#1 25608176#2 25608176#3 25608176#4 24567199 1204614545 25608295#0 25608295#1 25608295#3 25608295#4 881627333 244560423#0 244560423#2 24567248#1 25608435#0 25608435#2 351703076#0 861143931#1 861143931#1-AddedOffRampEdge 769102169#1 769102169#3 861143929 305951638#0 305951638#1 305951638#2 25608514#0 25608514#1 25608514#2 25608514#3 25608514#4 25608820#0 25608820#1 25608820#2 25608820#3 25608820#4 25608790#0 25927968#0 25927968#1 25927968#2 268119088#1 268119088#2 268119088#3 268119088#4 268119088#5 268119088#6 268119088#7 -268119088#7 -268119088#6 -268119088#5 -268119088#4 -268119088#3" /></vehicle><vehicle id="22gps" depart="22.00" color="255,0,0,255" departLane="0"><param key="posNoise" value="5" /><route edges="-25483190#2 -25483190#0 25483190#0 25483190#2 25483172#3 25483172#4 25483172#5 25483172#6 751833235#1 24567234#2 24567234#3 24567234#4 24567234#5 24567234#6 751833241 865065164#0 865065164#1 865065164#2 865065164#3 865065164#4 865065164#5 865065164#6 751833240 25608176#0 25608176#1 25608176#2 25608176#3 25608176#4 24567199 1204614545 25608295#0 25608295#1 25608295#3 25608295#4 881627333 244560423#0 244560423#2 24567248#1 25608435#0 25608435#2 351703076#0 861143931#1 861143931#1-AddedOffRampEdge 769102169#1 769102169#3 861143929 305951638#0 305951638#1 305951638#2 25608514#0 25608514#1 25608514#2 25608514#3 25608514#4 25608820#0 25608820#1 25608820#2 25608820#3 25608820#4 25608790#0 25927968#0 25927968#1 25927968#2 268119088#1 268119088#2 268119088#3 268119088#4 268119088#5 268119088#6 268119088#7 -268119088#7 -268119088#6 -268119088#5 -268119088#4 -268119088#3" /><param key="lateralOffset" value="0.03" /></vehicle><vehicle id="23gnss" depart="23.00" color="0,255,0,255"><param key="posNoise" value="0.1" /><route edges="-25607920#0 25607920#0 25607920#1 25607920#2 25607920#3 865065162 980868421 751826861#0 751826861#1 751826859#1 865065161 881627363 979431121#0 979431121#1 979431121#2 25670716#0 25670716#1 45272634#0 45272634#1 45272634#2 45272634#3 45272634#5 45272634#6 45272634#7 45272634#8 45272634#9 45272634#10 45272634#11 45272634#12 45272634#13 -31737033#5 -31737033#4 -31737033#3 -31737033#2 -31737033#1 -31737033#0 25722234#1 970970613 970970614#0 970970614#1 -34600338#5 -34600338#4 -34600338#3 -34600338#2" /></vehicle><vehicle id="23gps" depart="23.00" color="255,0,0,255" departLane="0"><param key="posNoise" value="5" /><route edges="-25607920#0 25607920#0 25607920#1 25607920#2 25607920#3 865065162 980868421 751826861#0 751826861#1 751826859#1 865065161 881627363 979431121#0 979431121#1 979431121#2 25670716#0 25670716#1 45272634#0 45272634#1 45272634#2 45272634#3 45272634#5 45272634#6 45272634#7 45272634#8 45272634#9 45272634#10 45272634#11 45272634#12 45272634#13 -31737033#5 -31737033#4 -31737033#3 -31737033#2 -31737033#1 -31737033#0 25722234#1 970970613 97097061