<additional>
    <collisionAction value="warn"/>
</additional>

